! -----------------------------------------------------------------------
! The Singapore benchmark model was developed in colloboration with Building
! and Construction Authority (BCA), and BECA. This research was funded by the 
! Republic of Singapore's National Research Foundation through a grant to the
! Berkeley Education Alliance for Research in Singapore (BEARS) for the
! Singapore-Berkeley Building Efficiency and Sustainability in the Tropics.
! A full description of the benchmark model and results can be found in 
! Duarte C, Raftery P, Schiavon S. April 2016. SinBerBEST Technology Energy 
! Assessment Results. Final report to SinBerBEST. Center for the Built Environment, 
! University of California, Berkeley, CA,  pp. 69.
! 
! Concrete facade benchmark model
! -----------------------------------------------------------------------

Version,                  
    8.1;                      !- Version Identifier

SimulationControl,        
    Yes,                      !- Do Zone Sizing Calculation
    Yes,                      !- Do System Sizing Calculation
    Yes,                      !- Do Plant Sizing Calculation
    Yes,                      !- Run Simulation for Sizing Periods
    Yes;                      !- Run Simulation for Weather File Run Periods

Building,                 
    Large_Office,             !- Name
    0.0,                      !- North Axis
    City,                     !- Terrain
    0.04,                     !- Loads Convergence Tolerance Value
    0.2,                      !- Temperature Convergence Tolerance Value
    FullInteriorAndExterior,    !- Solar Distribution
    40,                       !- Maximum Number of Warmup Days
    6;                        !- Minimum Number of Warmup Days

ShadowCalculation,        
    AverageOverDaysInFrequency,    !- Calculation Method
    30;                       !- Calculation Frequency

SurfaceConvectionAlgorithm:Inside,
    TARP;                     !- Algorithm

SurfaceConvectionAlgorithm:Outside,
    TARP;                     !- Algorithm

HeatBalanceAlgorithm,     
    ConductionTransferFunction;    !- Algorithm

Timestep,                 
    6;                        !- Number of Timesteps per Hour

Site:Location,            
    Singapore_SGP_Design_Conditions,    !- Name
    1.37,                     !- Latitude
    103.98,                   !- Longitude
    8.0,                      !- Time Zone
    16.0;                     !- Elevation

SizingPeriod:DesignDay,   
    SGP_Design_Day_Feb,       !- Name
    2,                        !- Month
    21,                       !- Day of Month
    SummerDesignDay,          !- Day Type
    33.3,                     !- Maximum DryBulb Temperature
    5.5,                      !- Daily DryBulb Temperature Range
    DefaultMultipliers,       !- DryBulb Temperature Range Modifier Type
    ,                         !- DryBulb Temperature Range Modifier Day Schedule Name
    Wetbulb,                  !- Humidity Condition Type
    27.8,                     !- Wetbulb or DewPoint at Maximum DryBulb
    ,                         !- Humidity Condition Day Schedule Name
    ,                         !- Humidity Ratio at Maximum DryBulb
    ,                         !- Enthalpy at Maximum DryBulb
    ,                         !- Daily WetBulb Temperature Range
    101133.0,                 !- Barometric Pressure
    4.1,                      !- Wind Speed
    30.0,                     !- Wind Direction
    No,                       !- Rain Indicator
    No,                       !- Snow Indicator
    No,                       !- Daylight Saving Time Indicator
    ASHRAEtau,                !- Solar Model Indicator
    ,                         !- Beam Solar Day Schedule Name
    ,                         !- Diffuse Solar Day Schedule Name
    0.494,                    !- ASHRAE Clear Sky Optical Depth for Beam Irradiance taub
    2.03;                     !- ASHRAE Clear Sky Optical Depth for Diffuse Irradiance taud

SizingPeriod:DesignDay,   
    SGP_Design_Day_Apr,       !- Name
    4,                        !- Month
    21,                       !- Day of Month
    SummerDesignDay,          !- Day Type
    33.3,                     !- Maximum DryBulb Temperature
    5.5,                      !- Daily DryBulb Temperature Range
    DefaultMultipliers,       !- DryBulb Temperature Range Modifier Type
    ,                         !- DryBulb Temperature Range Modifier Day Schedule Name
    Wetbulb,                  !- Humidity Condition Type
    27.8,                     !- Wetbulb or DewPoint at Maximum DryBulb
    ,                         !- Humidity Condition Day Schedule Name
    ,                         !- Humidity Ratio at Maximum DryBulb
    ,                         !- Enthalpy at Maximum DryBulb
    ,                         !- Daily WetBulb Temperature Range
    101133.0,                 !- Barometric Pressure
    4.1,                      !- Wind Speed
    30.0,                     !- Wind Direction
    No,                       !- Rain Indicator
    No,                       !- Snow Indicator
    No,                       !- Daylight Saving Time Indicator
    ASHRAEtau,                !- Solar Model Indicator
    ,                         !- Beam Solar Day Schedule Name
    ,                         !- Diffuse Solar Day Schedule Name
    0.494,                    !- ASHRAE Clear Sky Optical Depth for Beam Irradiance taub
    2.03;                     !- ASHRAE Clear Sky Optical Depth for Diffuse Irradiance taud

SizingPeriod:DesignDay,   
    SGP_Design_Day_Jun,       !- Name
    6,                        !- Month
    21,                       !- Day of Month
    SummerDesignDay,          !- Day Type
    33.3,                     !- Maximum DryBulb Temperature
    5.5,                      !- Daily DryBulb Temperature Range
    DefaultMultipliers,       !- DryBulb Temperature Range Modifier Type
    ,                         !- DryBulb Temperature Range Modifier Day Schedule Name
    Wetbulb,                  !- Humidity Condition Type
    27.8,                     !- Wetbulb or DewPoint at Maximum DryBulb
    ,                         !- Humidity Condition Day Schedule Name
    ,                         !- Humidity Ratio at Maximum DryBulb
    ,                         !- Enthalpy at Maximum DryBulb
    ,                         !- Daily WetBulb Temperature Range
    101133.0,                 !- Barometric Pressure
    4.1,                      !- Wind Speed
    30.0,                     !- Wind Direction
    No,                       !- Rain Indicator
    No,                       !- Snow Indicator
    No,                       !- Daylight Saving Time Indicator
    ASHRAEtau,                !- Solar Model Indicator
    ,                         !- Beam Solar Day Schedule Name
    ,                         !- Diffuse Solar Day Schedule Name
    0.494,                    !- ASHRAE Clear Sky Optical Depth for Beam Irradiance taub
    2.03;                     !- ASHRAE Clear Sky Optical Depth for Diffuse Irradiance taud

SizingPeriod:DesignDay,   
    SGP_Design_Day_Aug,       !- Name
    8,                        !- Month
    21,                       !- Day of Month
    SummerDesignDay,          !- Day Type
    33.3,                     !- Maximum DryBulb Temperature
    5.5,                      !- Daily DryBulb Temperature Range
    DefaultMultipliers,       !- DryBulb Temperature Range Modifier Type
    ,                         !- DryBulb Temperature Range Modifier Day Schedule Name
    Wetbulb,                  !- Humidity Condition Type
    27.8,                     !- Wetbulb or DewPoint at Maximum DryBulb
    ,                         !- Humidity Condition Day Schedule Name
    ,                         !- Humidity Ratio at Maximum DryBulb
    ,                         !- Enthalpy at Maximum DryBulb
    ,                         !- Daily WetBulb Temperature Range
    101133.0,                 !- Barometric Pressure
    4.1,                      !- Wind Speed
    30.0,                     !- Wind Direction
    No,                       !- Rain Indicator
    No,                       !- Snow Indicator
    No,                       !- Daylight Saving Time Indicator
    ASHRAEtau,                !- Solar Model Indicator
    ,                         !- Beam Solar Day Schedule Name
    ,                         !- Diffuse Solar Day Schedule Name
    0.494,                    !- ASHRAE Clear Sky Optical Depth for Beam Irradiance taub
    2.03;                     !- ASHRAE Clear Sky Optical Depth for Diffuse Irradiance taud

SizingPeriod:DesignDay,   
    SGP_Design_Day_Oct,       !- Name
    10,                       !- Month
    21,                       !- Day of Month
    SummerDesignDay,          !- Day Type
    33.3,                     !- Maximum DryBulb Temperature
    5.5,                      !- Daily DryBulb Temperature Range
    DefaultMultipliers,       !- DryBulb Temperature Range Modifier Type
    ,                         !- DryBulb Temperature Range Modifier Day Schedule Name
    Wetbulb,                  !- Humidity Condition Type
    27.8,                     !- Wetbulb or DewPoint at Maximum DryBulb
    ,                         !- Humidity Condition Day Schedule Name
    ,                         !- Humidity Ratio at Maximum DryBulb
    ,                         !- Enthalpy at Maximum DryBulb
    ,                         !- Daily WetBulb Temperature Range
    101133.0,                 !- Barometric Pressure
    4.1,                      !- Wind Speed
    30.0,                     !- Wind Direction
    No,                       !- Rain Indicator
    No,                       !- Snow Indicator
    No,                       !- Daylight Saving Time Indicator
    ASHRAEtau,                !- Solar Model Indicator
    ,                         !- Beam Solar Day Schedule Name
    ,                         !- Diffuse Solar Day Schedule Name
    0.494,                    !- ASHRAE Clear Sky Optical Depth for Beam Irradiance taub
    2.03;                     !- ASHRAE Clear Sky Optical Depth for Diffuse Irradiance taud

SizingPeriod:DesignDay,   
    SGP_Design_Day_Dec,       !- Name
    12,                       !- Month
    21,                       !- Day of Month
    SummerDesignDay,          !- Day Type
    33.3,                     !- Maximum DryBulb Temperature
    5.5,                      !- Daily DryBulb Temperature Range
    DefaultMultipliers,       !- DryBulb Temperature Range Modifier Type
    ,                         !- DryBulb Temperature Range Modifier Day Schedule Name
    Wetbulb,                  !- Humidity Condition Type
    27.8,                     !- Wetbulb or DewPoint at Maximum DryBulb
    ,                         !- Humidity Condition Day Schedule Name
    ,                         !- Humidity Ratio at Maximum DryBulb
    ,                         !- Enthalpy at Maximum DryBulb
    ,                         !- Daily WetBulb Temperature Range
    101133.0,                 !- Barometric Pressure
    4.1,                      !- Wind Speed
    30.0,                     !- Wind Direction
    No,                       !- Rain Indicator
    No,                       !- Snow Indicator
    No,                       !- Daylight Saving Time Indicator
    ASHRAEtau,                !- Solar Model Indicator
    ,                         !- Beam Solar Day Schedule Name
    ,                         !- Diffuse Solar Day Schedule Name
    0.494,                    !- ASHRAE Clear Sky Optical Depth for Beam Irradiance taub
    2.03;                     !- ASHRAE Clear Sky Optical Depth for Diffuse Irradiance taud

RunPeriod,                
    ,                         !- Name
    1,                        !- Begin Month
    1,                        !- Begin Day of Month
    12,                       !- End Month
    31,                       !- End Day of Month
    Thursday,                 !- Day of Week for Start Day
    No,                       !- Use Weather File Holidays and Special Days
    No,                       !- Use Weather File Daylight Saving Period
    No,                       !- Apply Weekend Holiday Rule
    Yes,                      !- Use Weather File Rain Indicators
    Yes;                      !- Use Weather File Snow Indicators

RunPeriodControl:SpecialDays,
    New Years Day,            !- Name
    January 1,                !- Start Date
    1,                        !- Duration
    Holiday;                  !- Special Day Type

RunPeriodControl:SpecialDays,
    Chinese New Year Day 1,    !- Name
    February 19,              !- Start Date
    1,                        !- Duration
    Holiday;                  !- Special Day Type

RunPeriodControl:SpecialDays,
    Chinese New Year Day 2,    !- Name
    February 20,              !- Start Date
    1,                        !- Duration
    Holiday;                  !- Special Day Type

RunPeriodControl:SpecialDays,
    Good Friday,              !- Name
    April 3,                  !- Start Date
    1,                        !- Duration
    Holiday;                  !- Special Day Type

RunPeriodControl:SpecialDays,
    Labour Day,               !- Name
    May 1,                    !- Start Date
    1,                        !- Duration
    Holiday;                  !- Special Day Type

RunPeriodControl:SpecialDays,
    Vesak Day,                !- Name
    June 1,                   !- Start Date
    1,                        !- Duration
    Holiday;                  !- Special Day Type

RunPeriodControl:SpecialDays,
    Hari Raya Puasa,          !- Name
    July 17,                  !- Start Date
    1,                        !- Duration
    Holiday;                  !- Special Day Type

RunPeriodControl:SpecialDays,
    National Day,             !- Name
    August 10,                !- Start Date
    1,                        !- Duration
    Holiday;                  !- Special Day Type

RunPeriodControl:SpecialDays,
    Hari Raya Haji,           !- Name
    September 24,             !- Start Date
    1,                        !- Duration
    Holiday;                  !- Special Day Type

RunPeriodControl:SpecialDays,
    Deepavali,                !- Name
    November 10,              !- Start Date
    1,                        !- Duration
    Holiday;                  !- Special Day Type

RunPeriodControl:SpecialDays,
    Christmas,                !- Name
    December 25,              !- Start Date
    1,                        !- Duration
    Holiday;                  !- Special Day Type

Site:GroundTemperature:BuildingSurface,
    27.55,                    !- January Ground Temperature
    28.03,                    !- February Ground Temperature
    28.32,                    !- March Ground Temperature
    28.42,                    !- April Ground Temperature
    28.26,                    !- May Ground Temperature
    27.88,                    !- June Ground Temperature
    27.4,                     !- July Ground Temperature
    26.92,                    !- August Ground Temperature
    26.59,                    !- September Ground Temperature
    26.51,                    !- October Ground Temperature
    26.68,                    !- November Ground Temperature
    27.05;                    !- December Ground Temperature

Site:WatermainsTemperature,
    Correlation,              !- Calculation Method
    ,                         !- Temperature Schedule Name
    26.98,                    !- Annual Average Outdoor Air Temperature
    1.7;                      !- Maximum Difference In Monthly Average Outdoor Air Temperatures

ScheduleTypeLimits,       
    Any Number;               !- Name

ScheduleTypeLimits,       
    Fraction,                 !- Name
    0.0,                      !- Lower Limit Value
    1.0,                      !- Upper Limit Value
    Continuous;               !- Numeric Type

ScheduleTypeLimits,       
    Temperature,              !- Name
    -60,                      !- Lower Limit Value
    200,                      !- Upper Limit Value
    Continuous;               !- Numeric Type

ScheduleTypeLimits,       
    On/Off,                   !- Name
    0,                        !- Lower Limit Value
    1,                        !- Upper Limit Value
    Discrete;                 !- Numeric Type

ScheduleTypeLimits,       
    Control Type,             !- Name
    0,                        !- Lower Limit Value
    4,                        !- Upper Limit Value
    Discrete;                 !- Numeric Type

ScheduleTypeLimits,       
    Humidity,                 !- Name
    10,                       !- Lower Limit Value
    90,                       !- Upper Limit Value
    Continuous;               !- Numeric Type

ScheduleTypeLimits,       
    Number;                   !- Name

Schedule:Compact,         
    Sch_Always_On,            !- Name
    Fraction,                 !- Schedule Type Limits Name
    Through: 12/31,           !- Field 1
    For: AllDays,             !- Field 2
    Until: 24:00,             !- Field 3
    1.0;                      !- Field 4

Schedule:Compact,         
    Sch_Activity,             !- Name
    Any Number,               !- Schedule Type Limits Name
    Through: 12/31,           !- Field 1
    For: AllDays,             !- Field 2
    Until: 24:00,             !- Field 3
    130;                      !- Field 4

Schedule:Compact,         
    Sch_Work_Eff,             !- Name
    Fraction,                 !- Schedule Type Limits Name
    Through: 12/31,           !- Field 1
    For: AllDays,             !- Field 2
    Until: 24:00,             !- Field 3
    0.0;                      !- Field 4

Schedule:Compact,         
    Sch_Air_Velo,             !- Name
    Any Number,               !- Schedule Type Limits Name
    Through: 12/31,           !- Field 1
    For: AllDays,             !- Field 2
    Until: 24:00,             !- Field 3
    0.2;                      !- Field 4

Schedule:Compact,         
    Sch_Clothing,             !- Name
    Any Number,               !- Schedule Type Limits Name
    Through: 04/30,           !- Field 1
    For: AllDays,             !- Field 2
    Until: 24:00,             !- Field 3
    0.5,                      !- Field 4
    Through: 09/30,           !- Field 5
    For: AllDays,             !- Field 6
    Until: 24:00,             !- Field 7
    0.5,                      !- Field 8
    Through: 12/31,           !- Field 9
    For: AllDays,             !- Field 10
    Until: 24:00,             !- Field 11
    0.5;                      !- Field 12

Schedule:Compact,         
    Sch_MinOA,                !- Name
    Fraction,                 !- Schedule Type Limits Name
    Through: 12/31,           !- Field 1
    For: AllDays,             !- Field 2
    Until: 24:00,             !- Field 3
    1.0;                      !- Field 4

Schedule:Compact,         
    Sch_Coil_SAT,             !- Name
    Temperature,              !- Schedule Type Limits Name
    Through: 12/31,           !- Field 1
    For: AllDays,             !- Field 2
    Until: 24:00,             !- Field 3
    12.8;                     !- Field 4

Schedule:Compact,         
    Sch_ChW_Loop_Temp,        !- Name
    Temperature,              !- Schedule Type Limits Name
    Through: 12/31,           !- Field 1
    For: AllDays,             !- Field 2
    Until: 24:00,             !- Field 3
    6.7;                      !- Field 4

Schedule:Compact,         
    Sch_CndW_Loop_Temp,       !- Name
    Temperature,              !- Schedule Type Limits Name
    Through: 12/31,           !- Field 1
    For: AllDays,             !- Field 2
    Until: 24:00,             !- Field 3
    29.5;                     !- Field 4

Schedule:Compact,         
    Sch_Zone_Cooling_Setpoint_Solar,    !- Name
    Temperature,              !- Schedule Type Limits Name
    Through: 12/31,           !- Field 1
    For: AllDays,             !- Field 2
    Until: 24:00,             !- Field 3
    23;                       !- Field 4

Schedule:Compact,         
    Sch_Zone_Thermostat_Control_Type,    !- Name
    Control Type,             !- Schedule Type Limits Name
    Through: 12/31,           !- Field 1
    For: AllDays,             !- Field 2
    Until: 24:00,             !- Field 3
    2;                        !- Field 4

Schedule:Compact,         
    Sch_Chiller,              !- Name
    On/Off,                   !- Schedule Type Limits Name
    Through: 12/31,           !- Field 1
    For: Weekdays,            !- Field 2
    Until: 01:00,             !- Field 3
    0,                        !- Field 4
    Until: 02:00,             !- Field 5
    0,                        !- Field 6
    Until: 03:00,             !- Field 7
    0,                        !- Field 8
    Until: 04:00,             !- Field 9
    0,                        !- Field 10
    Until: 05:00,             !- Field 11
    0,                        !- Field 12
    Until: 06:00,             !- Field 13
    0,                        !- Field 14
    Until: 07:30,             !- Field 15
    0,                        !- Field 16
    Until: 08:00,             !- Field 17
    1,                        !- Field 18
    Until: 09:00,             !- Field 19
    1,                        !- Field 20
    Until: 10:00,             !- Field 21
    1,                        !- Field 22
    Until: 11:00,             !- Field 23
    1,                        !- Field 24
    Until: 12:00,             !- Field 25
    1,                        !- Field 26
    Until: 13:00,             !- Field 27
    1,                        !- Field 28
    Until: 14:00,             !- Field 29
    1,                        !- Field 30
    Until: 15:00,             !- Field 31
    1,                        !- Field 32
    Until: 16:00,             !- Field 33
    1,                        !- Field 34
    Until: 17:00,             !- Field 35
    1,                        !- Field 36
    Until: 18:00,             !- Field 37
    1,                        !- Field 38
    Until: 19:00,             !- Field 39
    0,                        !- Field 40
    Until: 20:00,             !- Field 41
    0,                        !- Field 42
    Until: 21:00,             !- Field 43
    0,                        !- Field 44
    Until: 22:00,             !- Field 45
    0,                        !- Field 46
    Until: 23:00,             !- Field 47
    0,                        !- Field 48
    Until: 24:00,             !- Field 49
    0,                        !- Field 50
    For: Saturday,            !- Field 51
    Until: 01:00,             !- Field 52
    0,                        !- Field 53
    Until: 02:00,             !- Field 54
    0,                        !- Field 55
    Until: 03:00,             !- Field 56
    0,                        !- Field 57
    Until: 04:00,             !- Field 58
    0,                        !- Field 59
    Until: 05:00,             !- Field 60
    0,                        !- Field 61
    Until: 06:00,             !- Field 62
    0,                        !- Field 63
    Until: 07:30,             !- Field 64
    0,                        !- Field 65
    Until: 08:00,             !- Field 66
    1,                        !- Field 67
    Until: 09:00,             !- Field 68
    1,                        !- Field 69
    Until: 10:00,             !- Field 70
    1,                        !- Field 71
    Until: 11:00,             !- Field 72
    1,                        !- Field 73
    Until: 12:00,             !- Field 74
    1,                        !- Field 75
    Until: 13:00,             !- Field 76
    1,                        !- Field 77
    Until: 14:00,             !- Field 78
    0,                        !- Field 79
    Until: 15:00,             !- Field 80
    0,                        !- Field 81
    Until: 16:00,             !- Field 82
    0,                        !- Field 83
    Until: 17:00,             !- Field 84
    0,                        !- Field 85
    Until: 18:00,             !- Field 86
    0,                        !- Field 87
    Until: 19:00,             !- Field 88
    0,                        !- Field 89
    Until: 20:00,             !- Field 90
    0,                        !- Field 91
    Until: 21:00,             !- Field 92
    0,                        !- Field 93
    Until: 22:00,             !- Field 94
    0,                        !- Field 95
    Until: 23:00,             !- Field 96
    0,                        !- Field 97
    Until: 24:00,             !- Field 98
    0,                        !- Field 99
    For: Sunday Holidays,     !- Field 100
    Until: 01:00,             !- Field 101
    0,                        !- Field 102
    Until: 02:00,             !- Field 103
    0,                        !- Field 104
    Until: 03:00,             !- Field 105
    0,                        !- Field 106
    Until: 04:00,             !- Field 107
    0,                        !- Field 108
    Until: 05:00,             !- Field 109
    0,                        !- Field 110
    Until: 06:00,             !- Field 111
    0,                        !- Field 112
    Until: 07:00,             !- Field 113
    0,                        !- Field 114
    Until: 08:00,             !- Field 115
    0,                        !- Field 116
    Until: 09:00,             !- Field 117
    0,                        !- Field 118
    Until: 10:00,             !- Field 119
    0,                        !- Field 120
    Until: 11:00,             !- Field 121
    0,                        !- Field 122
    Until: 12:00,             !- Field 123
    0,                        !- Field 124
    Until: 13:00,             !- Field 125
    0,                        !- Field 126
    Until: 14:00,             !- Field 127
    0,                        !- Field 128
    Until: 15:00,             !- Field 129
    0,                        !- Field 130
    Until: 16:00,             !- Field 131
    0,                        !- Field 132
    Until: 17:00,             !- Field 133
    0,                        !- Field 134
    Until: 18:00,             !- Field 135
    0,                        !- Field 136
    Until: 19:00,             !- Field 137
    0,                        !- Field 138
    Until: 20:00,             !- Field 139
    0,                        !- Field 140
    Until: 21:00,             !- Field 141
    0,                        !- Field 142
    Until: 22:00,             !- Field 143
    0,                        !- Field 144
    Until: 23:00,             !- Field 145
    0,                        !- Field 146
    Until: 24:00,             !- Field 147
    0,                        !- Field 148
    For: SummerDesignDay AllOtherDays,    !- Field 149
    Until: 01:00,             !- Field 150
    0,                        !- Field 151
    Until: 02:00,             !- Field 152
    0,                        !- Field 153
    Until: 03:00,             !- Field 154
    0,                        !- Field 155
    Until: 04:00,             !- Field 156
    0,                        !- Field 157
    Until: 05:00,             !- Field 158
    0,                        !- Field 159
    Until: 06:00,             !- Field 160
    0,                        !- Field 161
    Until: 07:30,             !- Field 162
    0,                        !- Field 163
    Until: 08:00,             !- Field 164
    1,                        !- Field 165
    Until: 09:00,             !- Field 166
    1,                        !- Field 167
    Until: 10:00,             !- Field 168
    1,                        !- Field 169
    Until: 11:00,             !- Field 170
    1,                        !- Field 171
    Until: 12:00,             !- Field 172
    1,                        !- Field 173
    Until: 13:00,             !- Field 174
    1,                        !- Field 175
    Until: 14:00,             !- Field 176
    1,                        !- Field 177
    Until: 15:00,             !- Field 178
    1,                        !- Field 179
    Until: 16:00,             !- Field 180
    1,                        !- Field 181
    Until: 17:00,             !- Field 182
    1,                        !- Field 183
    Until: 18:00,             !- Field 184
    1,                        !- Field 185
    Until: 19:00,             !- Field 186
    0,                        !- Field 187
    Until: 20:00,             !- Field 188
    0,                        !- Field 189
    Until: 21:00,             !- Field 190
    0,                        !- Field 191
    Until: 22:00,             !- Field 192
    0,                        !- Field 193
    Until: 23:00,             !- Field 194
    0,                        !- Field 195
    Until: 24:00,             !- Field 196
    0;                        !- Field 197

Schedule:Compact,         
    Sch_ACMV,                 !- Name
    On/Off,                   !- Schedule Type Limits Name
    Through: 12/31,           !- Field 1
    For: Weekdays,            !- Field 2
    Until: 01:00,             !- Field 3
    0,                        !- Field 4
    Until: 02:00,             !- Field 5
    0,                        !- Field 6
    Until: 03:00,             !- Field 7
    0,                        !- Field 8
    Until: 04:00,             !- Field 9
    0,                        !- Field 10
    Until: 05:00,             !- Field 11
    0,                        !- Field 12
    Until: 06:00,             !- Field 13
    0,                        !- Field 14
    Until: 07:30,             !- Field 15
    0,                        !- Field 16
    Until: 08:00,             !- Field 17
    1,                        !- Field 18
    Until: 09:00,             !- Field 19
    1,                        !- Field 20
    Until: 10:00,             !- Field 21
    1,                        !- Field 22
    Until: 11:00,             !- Field 23